**90x90x55 mesh block - working version 
ROCKS----1----*----2----*----3----*----4----*----5----*----6----*----7----*----8 
bfill    1 2120.     0.10      1.000E-15 1.000E-15 1.000E-15   0.00      1000.
 3.20E-09   3.0E-05 5.000           0.20
silic    1 2500.     0.10      1.000E-16 1.000E-16 1.000E-16   0.00      1000.
 3.20E-09   3.0E-05 5.000           0.20
karst    1 2300.     0.20      1.000E-09 1.000E-09 1.000E-09   0.00      1000.
 3.20E-09   3.0E-05 5.000           0.20
carbb    1 2300.     0.20      1.000E-16 1.000E-16 1.000E-16   0.00      1000.
 3.20E-09   3.0E-05 5.000           0.20
fault    1 2500.    0.30       1.000E-13 1.000E-13 1.000E-13   0.00      1000.
 3.20E-09   3.0E-05 5.000           0.20

START----1----*----2----*----3----*----4----*----5----*----6----*----7----*----8

PARAM           123456789012345678901234
   49999    9999100000000120000401005000
0.00000E03     1.e11   0.5e-01      1.e7dummy      -9.800000  2.
 1.0000e-5
0.19433134977163E+080.24678398434204E+03

TIMES
 30
3.00000e096.70000e091.00000e101.33000e101.67000e102.00000e102.30000e102.66000e10
3.00000e103.33000e103.67000e104.00000e104.33000e104.67000e105.00000e105.33000e10
5.67000e106.00000e106.33000e106.66000e107.00000e107.33000e107.66000e108.00000e10
8.33000e108.66000e109.00000e109.33000e109.66000e101.00000e11

REACT----1MOPR(20)-2----*----3----*----4----*----5----*----6----*----7----*----8
200200

OUTPT !type NX NY NZ
         1   9 10 23

MULTI----1----*----2----*----3----*----4----*----5----*----6----*----7----*----8
    1    2    2    6        !for EOS1 or EOS4 nonisothermal

RMECH    mopmech(5)=1  here for mechanics;
00000

ENDCY



TIMES
 27
1.00000e-23.16000e-21.00000e-13.16000e-11.00000e003.16000e001.00000e013.16000e01
1.00000e023.16000e021.00000e033.16000e031.00000e043.16000e041.00000e053.16000e05
1.00000e063.16000e061.00000e073.16000e071.00000e083.16000e081.00000e093.16000e09
1.00000e103.16000e101.00000e11


