**90x90x55 mesh block - working version 
ROCKS----1----*----2----*----3----*----4----*----5----*----6----*----7----*----8 
bfill    1 2120.     0.10      1.000E-15 1.000E-15 1.000E-15   0.00      1000.
 3.20E-09   3.0E-05 5.000           0.20
silic    1 2500.     0.10      1.000E-16 1.000E-16 1.000E-16   0.00      1000.
 3.20E-09   3.0E-05 5.000           0.20
karst    1 2300.     0.20      1.000E-09 1.000E-09 1.000E-09   0.00      1000.
 3.20E-09   3.0E-05 5.000           0.20
carbb    1 2300.     0.20      1.000E-16 1.000E-16 1.000E-16   0.00      1000.
 3.20E-09   3.0E-05 5.000           0.20
fault    1 2500.    0.30       1.000E-12 1.000E-12 1.000E-12   0.00      1000.
 3.20E-09   3.0E-05 5.000           0.20

START----1----*----2----*----3----*----4----*----5----*----6----*----7----*----8

PARAM           123456789012345678901234
   49999    9999100000000120000401005000
0.00000E03     1.e11   0.5e-01      1.e7dummy      -9.800000  2.
 1.0000e-5
0.19433134977163E+080.24678398434204E+03

TIMES
 30
3.00000e086.70000e081.00000e091.33000e091.67000e092.00000e092.30000e092.66000e09
3.00000e093.33000e093.67000e094.00000e094.33000e094.67000e095.00000e095.33000e09
5.67000e096.00000e096.33000e096.66000e097.00000e097.33000e097.66000e098.00000e09
8.33000e098.66000e099.00000e099.33000e099.66000e091.00000e10

REACT----1MOPR(20)-2----*----3----*----4----*----5----*----6----*----7----*----8
200200

OUTPT !type NX NY NZ
         1   17 20 23

MULTI----1----*----2----*----3----*----4----*----5----*----6----*----7----*----8
    1    2    2    6        !for EOS1 or EOS4 nonisothermal

RMECH    mopmech(5)=1  here for mechanics;
00000

ENDCY



TIMES
 27
1.00000e-23.16000e-21.00000e-13.16000e-11.00000e003.16000e001.00000e013.16000e01
1.00000e023.16000e021.00000e033.16000e031.00000e043.16000e041.00000e053.16000e05
1.00000e063.16000e061.00000e073.16000e071.00000e083.16000e081.00000e093.16000e09
1.00000e103.16000e101.00000e11


